REMARK  Name = C:\Users\Ganatra\Desktop\Docking1\Compound 4.pdb
REMARK                            x       y       z     vdW  Elec       q    Type
REMARK                         _______ _______ _______ _____ _____    ______ ____
ROOT
ATOM      5  C   LIG    1       -4.568  -3.724   0.000  0.00  0.00    -0.018 A 
ATOM      6  C   LIG    1       -3.235  -2.954   0.000  0.00  0.00    -0.004 A 
ATOM      7  C   LIG    1       -1.901  -3.724   0.000  0.00  0.00    +0.001 A 
ATOM      8  C   LIG    1       -0.567  -2.954   0.000  0.00  0.00    +0.000 A 
ATOM      9  C   LIG    1        0.766  -3.724   0.000  0.00  0.00    +0.001 A 
ATOM     10  C   LIG    1        0.766  -5.263   0.000  0.00  0.00    +0.020 A 
ATOM     11  C   LIG    1       -0.567  -6.034   0.000  0.00  0.00    +0.125 A 
ATOM     16  C   LIG    1       -1.901  -5.263   0.000  0.00  0.00    +0.019 A 
ATOM     17  C   LIG    1       -3.235  -6.034   0.000  0.00  0.00    +0.001 A 
ATOM     18  C   LIG    1       -4.568  -5.263   0.000  0.00  0.00    -0.004 A 
ENDROOT
BRANCH  11  12
ATOM     12  S   LIG    1       -0.567  -7.574   0.000  0.00  0.00    +0.093 S 
ATOM     13  N   LIG    1        0.973  -7.574   0.000  0.00  0.00    +0.039 NA
ATOM     14  O   LIG    1       -2.107  -7.574   0.000  0.00  0.00    -0.150 OA
ATOM     15  O   LIG    1       -0.567  -9.114   0.000  0.00  0.00    -0.150 OA
ENDBRANCH  11  12
BRANCH   5   4
ATOM      4  C   LIG    1       -5.902  -2.954   0.000  0.00  0.00    +0.053 C 
BRANCH   4   3
ATOM      1  C   LIG    1       -7.236   0.897   0.000  0.00  0.00    +0.037 A 
ATOM      2  C   LIG    1       -7.236  -0.644   0.000  0.00  0.00    -0.001 A 
ATOM      3  C   LIG    1       -5.902  -1.414   0.000  0.00  0.00    -0.018 A 
ATOM     19  C   LIG    1       -4.568  -0.644   0.000  0.00  0.00    -0.001 A 
ATOM     20  C   LIG    1       -4.568   0.897   0.000  0.00  0.00    +0.038 A 
ATOM     21  C   LIG    1       -3.424   1.927   0.000  0.00  0.00    +0.047 A 
ATOM     22  C   LIG    1       -4.050   3.334   0.000  0.00  0.00    +0.225 A 
ATOM     26  O   LIG    1       -5.582   3.173   0.000  0.00  0.00    -0.447 OA
ATOM     27  C   LIG    1       -5.902   1.667   0.000  0.00  0.00    +0.146 A 
BRANCH  22  23
ATOM     23  C   LIG    1       -3.280   4.668   0.000  0.00  0.00    +0.422 C 
ATOM     24  O   LIG    1       -4.050   6.001   0.000  0.00  0.00    -0.237 OA
ATOM     25  O   LIG    1       -1.740   4.668   0.000  0.00  0.00    -0.237 OA
ENDBRANCH  22  23
ENDBRANCH   4   3
ENDBRANCH   5   4
TORSDOF 4
