REMARK  Name = C:\Users\Ganatra\Desktop\Docking1\NimbMod_hsp90inhib_5.pdb
REMARK                            x       y       z     vdW  Elec       q    Type
REMARK                         _______ _______ _______ _____ _____    ______ ____
ROOT
ATOM      8  C   LIG    1        1.712   0.785   0.000  0.00  0.00    +0.022 C 
ATOM      9  C   LIG    1        3.045   0.015   0.000  0.00  0.00    +0.043 C 
ENDROOT
BRANCH   8   7
ATOM      4  C   LIG    1       -3.623   0.785   0.000  0.00  0.00    +0.074 A 
ATOM      5  C   LIG    1       -2.290   0.015   0.000  0.00  0.00    +0.087 A 
ATOM      6  N   LIG    1       -0.956   0.785   0.000  0.00  0.00    -0.245 NA
ATOM      7  C   LIG    1        0.378   0.015   0.000  0.00  0.00    +0.083 A 
ATOM     26  C   LIG    1        0.378  -1.525   0.000  0.00  0.00    +0.037 A 
ATOM     27  C   LIG    1       -0.956  -2.295   0.000  0.00  0.00    +0.092 A 
ATOM     28  N   LIG    1       -0.956  -3.835   0.000  0.00  0.00    -0.128 NA
ATOM     29  C   LIG    1       -2.290  -1.525   0.000  0.00  0.00    +0.035 A 
ATOM     30  C   LIG    1       -3.623  -2.295   0.000  0.00  0.00    +0.007 A 
ATOM     31  C   LIG    1       -4.957  -1.525   0.000  0.00  0.00    +0.057 A 
ATOM     35  C   LIG    1       -4.957   0.015   0.000  0.00  0.00    +0.011 A 
BRANCH   4   1
ATOM      1  C   LIG    1       -3.623   2.325   0.000  0.00  0.00    +0.286 C 
ATOM      2  N   LIG    1       -4.957   3.095   0.000  0.00  0.00    -0.084 NA
ATOM      3  O   LIG    1       -2.290   3.095   0.000  0.00  0.00    -0.267 OA
ENDBRANCH   4   1
BRANCH  31  32
ATOM     32  C   LIG    1       -6.291  -2.295   0.000  0.00  0.00    +0.284 C 
ATOM     33  N   LIG    1       -6.291  -3.835   0.000  0.00  0.00    -0.084 NA
ATOM     34  O   LIG    1       -7.624  -1.525   0.000  0.00  0.00    -0.267 OA
ENDBRANCH  31  32
ENDBRANCH   8   7
BRANCH   9  10
ATOM     10  C   LIG    1        4.379   0.785   0.000  0.00  0.00    +0.191 A 
ATOM     11  O   LIG    1        5.786   0.159   0.000  0.00  0.00    -0.418 OA
ATOM     12  C   LIG    1        6.816   1.304   0.000  0.00  0.00    +0.348 A 
ATOM     22  C   LIG    1        6.046   2.637   0.000  0.00  0.00    +0.309 A 
ATOM     23  O   LIG    1        6.673   4.044   0.000  0.00  0.00    -0.276 OA
ATOM     24  C   LIG    1        4.540   2.317   0.000  0.00  0.00    +0.275 A 
ATOM     25  O   LIG    1        3.395   3.347   0.000  0.00  0.00    -0.280 OA
BRANCH  12  13
ATOM     13  O   LIG    1        8.348   1.143   0.000  0.00  0.00    -0.366 OA
BRANCH  13  14
ATOM     14  P   LIG    1        8.974  -0.264   0.000  0.00  0.00    +0.568 P 
ATOM     15  O   LIG    1       10.381   0.362   0.000  0.00  0.00    -0.110 OA
ATOM     16  O   LIG    1       11.293  -0.301   0.000  0.00  0.00    -0.164 OA
ATOM     17  P   LIG    1       11.132  -1.832   0.000  0.00  0.00    +0.257 P 
ATOM     18  O   LIG    1       12.664  -1.993   0.000  0.00  0.00    -0.435 OA
ATOM     19  O   LIG    1       10.971  -3.364   0.000  0.00  0.00    -0.515 OA
ATOM     20  O   LIG    1        7.567  -0.891   0.000  0.00  0.00    -0.213 OA
ATOM     21  O   LIG    1        9.600  -1.671   0.000  0.00  0.00    -0.215 OA
ENDBRANCH  13  14
ENDBRANCH  12  13
ENDBRANCH   9  10
TORSDOF 6
