REMARK  Name = C:\Users\Ganatra\Desktop\Docking1\NimbMod_hsp90inhib_8.pdb
REMARK                            x       y       z     vdW  Elec       q    Type
REMARK                         _______ _______ _______ _____ _____    ______ ____
ROOT
ATOM     14  C   LIG    1       -0.916  -1.612   0.000  0.00  0.00    -0.011 A 
ATOM     15  C   LIG    1        0.115  -2.757   0.000  0.00  0.00    -0.004 A 
ATOM     16  C   LIG    1        1.621  -2.436   0.000  0.00  0.00    +0.006 A 
ATOM     17  C   LIG    1        2.097  -0.972   0.000  0.00  0.00    +0.076 A 
ATOM     22  C   LIG    1        1.067   0.173   0.000  0.00  0.00    +0.009 A 
ATOM     23  C   LIG    1       -0.440  -0.148   0.000  0.00  0.00    +0.039 A 
ENDROOT
BRANCH  23  24
ATOM     24  C   LIG    1       -1.470   0.997   0.000  0.00  0.00    +0.230 C 
ATOM     25  C   LIG    1       -0.994   2.462   0.000  0.00  0.00    +0.188 C 
ATOM     26  O   LIG    1       -1.900   3.707   0.000  0.00  0.00    -0.418 OA
ATOM     27  C   LIG    1       -0.994   4.953   0.000  0.00  0.00    +0.346 C 
ATOM     28  C   LIG    1        0.470   4.477   0.000  0.00  0.00    +0.079 A 
ATOM     29  C   LIG    1        1.804   5.247   0.000  0.00  0.00    +0.010 A 
ATOM     30  C   LIG    1        3.138   4.477   0.000  0.00  0.00    +0.042 A 
ATOM     31  C   LIG    1        3.138   2.937   0.000  0.00  0.00    +0.196 A 
ATOM     32  O   LIG    1        4.471   2.167   0.000  0.00  0.00    -0.287 OA
ATOM     33  C   LIG    1        1.804   2.167   0.000  0.00  0.00    +0.045 A 
ATOM     34  O   LIG    1       -1.470   6.418   0.000  0.00  0.00    -0.244 OA
ATOM     35  C   LIG    1        0.470   2.937   0.000  0.00  0.00    +0.047 A 
ATOM     36  O   LIG    1       -2.977   0.677   0.000  0.00  0.00    -0.283 OA
ENDBRANCH  23  24
BRANCH  17  18
ATOM     18  C   LIG    1        3.603  -0.652   0.000  0.00  0.00    +0.341 C 
ATOM     21  O   LIG    1        4.634  -1.796   0.000  0.00  0.00    -0.245 OA
BRANCH  18  19
ATOM     19  O   LIG    1        4.079   0.813   0.000  0.00  0.00    -0.441 OA
ATOM     20  C   LIG    1        5.586   1.133   0.000  0.00  0.00    +0.256 C 
ENDBRANCH  18  19
ENDBRANCH  17  18
BRANCH  14   1
ATOM      1  C   LIG    1       -2.422  -1.932   0.000  0.00  0.00    +0.095 C 
BRANCH   1   2
ATOM      2  C   LIG    1       -2.898  -3.397   0.000  0.00  0.00    +0.173 A 
ATOM      3  O   LIG    1       -4.362  -3.873   0.000  0.00  0.00    -0.422 OA
ATOM      4  C   LIG    1       -4.362  -5.413   0.000  0.00  0.00    +0.343 A 
ATOM      5  O   LIG    1       -5.608  -6.318   0.000  0.00  0.00    -0.405 OA
ATOM      6  P   LIG    1       -5.447  -7.850   0.000  0.00  0.00    +0.315 P 
ATOM      7  O   LIG    1       -5.286  -9.381   0.000  0.00  0.00    -0.425 OA
ATOM      8  O   LIG    1       -3.916  -7.689   0.000  0.00  0.00    -0.114 OA
ATOM      9  O   LIG    1       -2.422  -7.353   0.000  0.00  0.00    -0.317 OA
ATOM     10  O   LIG    1       -6.979  -8.011   0.000  0.00  0.00    -0.506 OA
ATOM     11  C   LIG    1       -2.898  -5.889   0.000  0.00  0.00    +0.296 A 
ATOM     12  C   LIG    1       -1.993  -4.643   0.000  0.00  0.00    +0.270 A 
ATOM     13  O   LIG    1       -0.453  -4.643   0.000  0.00  0.00    -0.280 OA
ENDBRANCH   1   2
ENDBRANCH  14   1
TORSDOF 5
