REMARK  Name = C:\Users\Ganatra\Desktop\Docking1\NimbMod_hsp90inhib_6.pdb
REMARK                            x       y       z     vdW  Elec       q    Type
REMARK                         _______ _______ _______ _____ _____    ______ ____
ROOT
ATOM      1  C   LIG    1       -3.962  -2.513   0.000  0.00  0.00    +0.295 C 
ATOM      2  O   LIG    1       -3.962  -4.053   0.000  0.00  0.00    -0.420 OA
ATOM      3  C   LIG    1       -2.628  -4.823   0.000  0.00  0.00    +0.315 C 
ATOM      6  C   LIG    1       -1.294  -4.053   0.000  0.00  0.00    +0.049 C 
ATOM      7  C   LIG    1       -1.294  -2.513   0.000  0.00  0.00    +0.005 C 
ATOM      8  C   LIG    1        0.040  -1.743   0.000  0.00  0.00    +0.039 A 
ATOM      9  C   LIG    1        1.373  -2.513   0.000  0.00  0.00    +0.196 A 
ATOM     10  O   LIG    1        1.373  -4.053   0.000  0.00  0.00    -0.287 OA
ATOM     11  C   LIG    1        2.707  -1.743   0.000  0.00  0.00    +0.042 A 
ATOM     12  C   LIG    1        2.707  -0.203   0.000  0.00  0.00    +0.010 A 
ATOM     13  C   LIG    1        1.373   0.567   0.000  0.00  0.00    +0.077 A 
ATOM     14  C   LIG    1        1.373   2.107   0.000  0.00  0.00    +0.348 C 
ATOM     15  O   LIG    1        2.707   2.877   0.000  0.00  0.00    -0.244 OA
ATOM     16  O   LIG    1        0.040   2.877   0.000  0.00  0.00    -0.386 OA
ATOM     17  C   LIG    1       -1.294   2.107   0.000  0.00  0.00    +0.351 C 
ATOM     18  O   LIG    1       -2.628   2.877   0.000  0.00  0.00    -0.244 OA
ATOM     19  C   LIG    1       -1.294   0.567   0.000  0.00  0.00    +0.114 C 
ATOM     20  C   LIG    1       -2.628  -0.203   0.000  0.00  0.00    +0.189 C 
ATOM     21  C   LIG    1        0.040  -0.203   0.000  0.00  0.00    +0.019 A 
ATOM     22  O   LIG    1       -2.628  -1.743   0.000  0.00  0.00    -0.421 OA
ATOM     23  C   LIG    1       -5.295  -1.743   0.000  0.00  0.00    +0.057 C 
ENDROOT
BRANCH   3   4
ATOM      4  O   LIG    1       -2.628  -6.363   0.000  0.00  0.00    -0.314 OA
ATOM      5  C   LIG    1       -3.962  -7.133   0.000  0.00  0.00    +0.178 C 
ENDBRANCH   3   4
BRANCH  23  24
ATOM     24  C   LIG    1       -5.295  -0.203   0.000  0.00  0.00    +0.062 C 
BRANCH  24  25
ATOM     25  C   LIG    1       -6.629   0.567   0.000  0.00  0.00    +0.023 A 
ATOM     26  C   LIG    1       -6.790   2.099   0.000  0.00  0.00    +0.037 A 
ATOM     27  C   LIG    1       -8.296   2.419   0.000  0.00  0.00    +0.148 A 
ATOM     35  O   LIG    1       -9.066   1.085   0.000  0.00  0.00    -0.451 OA
ATOM     36  C   LIG    1       -8.036  -0.059   0.000  0.00  0.00    +0.176 A 
BRANCH  27  28
ATOM     28  C   LIG    1       -8.923   3.826   0.000  0.00  0.00    +0.078 C 
ATOM     29  C   LIG    1      -10.454   3.987   0.000  0.00  0.00    +0.186 C 
BRANCH  29  30
ATOM     30  O   LIG    1      -11.081   5.393   0.000  0.00  0.00    -0.397 OA
BRANCH  30  31
ATOM     31  P   LIG    1      -12.612   5.554   0.000  0.00  0.00    +0.589 P 
ATOM     32  O   LIG    1      -12.773   4.023   0.000  0.00  0.00    -0.104 OA
ATOM     33  O   LIG    1      -14.144   5.715   0.000  0.00  0.00    -0.104 OA
ATOM     34  O   LIG    1      -12.451   7.086   0.000  0.00  0.00    -0.211 OA
ENDBRANCH  30  31
ENDBRANCH  29  30
ENDBRANCH  27  28
ENDBRANCH  24  25
ENDBRANCH  23  24
TORSDOF 6
