REMARK  Name = C:\Users\Ganatra\Desktop\Docking1\NimbMod_hsp90inhib_7.pdb
REMARK                            x       y       z     vdW  Elec       q    Type
REMARK                         _______ _______ _______ _____ _____    ______ ____
ROOT
ATOM      3  C   LIG    1        5.968   9.943   0.000  0.00  0.00    +0.203 A 
ATOM      4  N   LIG    1        4.634  10.713   0.000  0.00  0.00    -0.189 NA
ATOM      5  C   LIG    1        3.301   9.943   0.000  0.00  0.00    +0.259 A 
ATOM      6  N   LIG    1        1.967  10.713   0.000  0.00  0.00    -0.086 NA
ATOM      7  N   LIG    1        3.301   8.403   0.000  0.00  0.00    -0.192 NA
ATOM      8  C   LIG    1        4.634   7.633   0.000  0.00  0.00    +0.167 A 
ATOM     23  N   LIG    1        5.968   8.403   0.000  0.00  0.00    -0.205 NA
ENDROOT
BRANCH   3   2
ATOM      1  N   LIG    1        7.301  12.253   0.000  0.00  0.00    -0.189 NA
ATOM      2  C   LIG    1        7.301  10.713   0.000  0.00  0.00    +0.204 A 
ATOM     24  N   LIG    1        8.635   9.943   0.000  0.00  0.00    -0.189 NA
ATOM     25  C   LIG    1        9.969  10.713   0.000  0.00  0.00    +0.260 A 
ATOM     26  N   LIG    1       11.303   9.943   0.000  0.00  0.00    -0.086 NA
ATOM     27  N   LIG    1        9.969  12.253   0.000  0.00  0.00    -0.176 NA
ATOM     28  C   LIG    1        8.635  13.023   0.000  0.00  0.00    +0.260 A 
ATOM     29  N   LIG    1        8.635  14.563   0.000  0.00  0.00    -0.086 NA
ENDBRANCH   3   2
BRANCH   8   9
ATOM      9  C   LIG    1        4.634   6.093   0.000  0.00  0.00    +0.042 C 
ATOM     10  C   LIG    1        3.301   5.323   0.000  0.00  0.00    +0.044 C 
BRANCH  10  11
ATOM     11  C   LIG    1        3.301   3.783   0.000  0.00  0.00    +0.191 A 
ATOM     12  O   LIG    1        2.055   2.878   0.000  0.00  0.00    -0.418 OA
ATOM     13  C   LIG    1        2.531   1.413   0.000  0.00  0.00    +0.344 A 
ATOM     14  O   LIG    1        1.625   0.167   0.000  0.00  0.00    -0.405 OA
ATOM     15  P   LIG    1        2.252  -1.240   0.000  0.00  0.00    +0.315 P 
ATOM     16  O   LIG    1        0.845  -1.866   0.000  0.00  0.00    -0.425 OA
ATOM     17  O   LIG    1        3.659  -0.613   0.000  0.00  0.00    -0.114 OA
ATOM     18  O   LIG    1        4.976   0.167   0.000  0.00  0.00    -0.317 OA
ATOM     19  O   LIG    1        2.878  -2.647   0.000  0.00  0.00    -0.506 OA
ATOM     20  C   LIG    1        4.071   1.413   0.000  0.00  0.00    +0.296 A 
ATOM     21  C   LIG    1        4.546   2.878   0.000  0.00  0.00    +0.274 A 
ATOM     22  O   LIG    1        6.011   3.353   0.000  0.00  0.00    -0.280 OA
ENDBRANCH  10  11
ENDBRANCH   8   9
TORSDOF 3
