REMARK  Name = C:\Users\Ganatra\Desktop\Docking1\NimbMod_hsp90inhib_2.pdb
REMARK                            x       y       z     vdW  Elec       q    Type
REMARK                         _______ _______ _______ _____ _____    ______ ____
ROOT
ATOM      4  C   LIG    1       -3.019   0.187   0.000  0.00  0.00    +0.074 A 
ATOM      5  C   LIG    1       -1.685  -0.583   0.000  0.00  0.00    +0.087 A 
ATOM      6  N   LIG    1       -0.351   0.187   0.000  0.00  0.00    -0.249 NA
ATOM      7  C   LIG    1        0.982  -0.583   0.000  0.00  0.00    +0.061 A 
ATOM     22  C   LIG    1        0.982  -2.123   0.000  0.00  0.00    +0.033 A 
ATOM     23  C   LIG    1       -0.351  -2.893   0.000  0.00  0.00    +0.092 A 
ATOM     24  N   LIG    1       -0.351  -4.433   0.000  0.00  0.00    -0.128 NA
ATOM     25  C   LIG    1       -1.685  -2.123   0.000  0.00  0.00    +0.035 A 
ATOM     26  C   LIG    1       -3.019  -2.893   0.000  0.00  0.00    +0.007 A 
ATOM     27  C   LIG    1       -4.353  -2.123   0.000  0.00  0.00    +0.057 A 
ATOM     31  C   LIG    1       -4.353  -0.583   0.000  0.00  0.00    +0.011 A 
ENDROOT
BRANCH   4   1
ATOM      1  C   LIG    1       -3.019   1.727   0.000  0.00  0.00    +0.286 C 
ATOM      2  N   LIG    1       -4.353   2.497   0.000  0.00  0.00    -0.084 NA
ATOM      3  O   LIG    1       -1.685   2.497   0.000  0.00  0.00    -0.267 OA
ENDBRANCH   4   1
BRANCH  27  28
ATOM     28  C   LIG    1       -5.686  -2.893   0.000  0.00  0.00    +0.284 C 
ATOM     29  N   LIG    1       -7.020  -2.123   0.000  0.00  0.00    -0.084 NA
ATOM     30  O   LIG    1       -5.686  -4.433   0.000  0.00  0.00    -0.267 OA
ENDBRANCH  27  28
BRANCH   7   8
ATOM      8  C   LIG    1        2.316   0.187   0.000  0.00  0.00    +0.054 C 
BRANCH   8   9
ATOM      9  C   LIG    1        2.316   1.727   0.000  0.00  0.00    +0.074 C 
BRANCH   9  10
ATOM     10  C   LIG    1        3.723   2.354   0.000  0.00  0.00    +0.169 A 
ATOM     11  O   LIG    1        5.057   1.584   0.000  0.00  0.00    -0.422 OA
ATOM     12  C   LIG    1        6.201   2.614   0.000  0.00  0.00    +0.347 A 
ATOM     18  C   LIG    1        5.575   4.021   0.000  0.00  0.00    +0.308 A 
ATOM     19  O   LIG    1        6.345   5.355   0.000  0.00  0.00    -0.276 OA
ATOM     20  C   LIG    1        4.043   3.860   0.000  0.00  0.00    +0.271 A 
ATOM     21  O   LIG    1        3.013   5.004   0.000  0.00  0.00    -0.280 OA
BRANCH  12  13
ATOM     13  O   LIG    1        7.707   2.294   0.000  0.00  0.00    -0.365 OA
BRANCH  13  14
ATOM     14  P   LIG    1        8.183   0.829   0.000  0.00  0.00    +0.591 P 
ATOM     15  O   LIG    1        7.153  -0.315   0.000  0.00  0.00    -0.104 OA
ATOM     16  O   LIG    1        8.659  -0.635   0.000  0.00  0.00    -0.104 OA
ATOM     17  O   LIG    1        9.690   0.509   0.000  0.00  0.00    -0.211 OA
ENDBRANCH  13  14
ENDBRANCH  12  13
ENDBRANCH   9  10
ENDBRANCH   8   9
ENDBRANCH   7   8
TORSDOF 7
