REMARK  Name = C:\Users\Ganatra\Desktop\Docking1\Compound 5.pdb
REMARK                            x       y       z     vdW  Elec       q    Type
REMARK                         _______ _______ _______ _____ _____    ______ ____
ROOT
ATOM      1  C   LIG    1       -4.462  -3.658   0.000  0.00  0.00    +0.159 A 
ATOM      6  C   LIG    1       -3.128  -2.888   0.000  0.00  0.00    +0.025 A 
ATOM     10  C   LIG    1       -3.128  -1.348   0.000  0.00  0.00    +0.002 A 
ATOM     11  C   LIG    1       -4.462  -0.578   0.000  0.00  0.00    +0.003 A 
ATOM     12  C   LIG    1       -5.795  -1.348   0.000  0.00  0.00    +0.039 A 
ATOM     13  C   LIG    1       -7.260  -0.872   0.000  0.00  0.00    +0.041 A 
ATOM     24  C   LIG    1       -8.165  -2.118   0.000  0.00  0.00    +0.180 A 
ATOM     25  O   LIG    1       -7.260  -3.364   0.000  0.00  0.00    -0.449 OA
ATOM     26  C   LIG    1       -5.795  -2.888   0.000  0.00  0.00    +0.164 A 
ENDROOT
BRANCH   1   2
ATOM      2  S   LIG    1       -4.462  -5.198   0.000  0.00  0.00    +0.096 S 
ATOM      3  N   LIG    1       -6.002  -5.198   0.000  0.00  0.00    +0.039 NA
ATOM      4  O   LIG    1       -2.922  -5.198   0.000  0.00  0.00    -0.150 OA
ATOM      5  O   LIG    1       -4.462  -6.738   0.000  0.00  0.00    -0.150 OA
ENDBRANCH   1   2
BRANCH   6   7
ATOM      7  C   LIG    1       -1.794  -3.658   0.000  0.00  0.00    +0.047 C 
ATOM      8  C   LIG    1       -0.461  -2.888   0.000  0.00  0.00    +0.234 C 
ATOM      9  O   LIG    1        0.873  -3.658   0.000  0.00  0.00    -0.283 OA
ENDBRANCH   6   7
BRANCH  13  14
ATOM     14  C   LIG    1       -7.736   0.593   0.000  0.00  0.00    +0.003 C 
ATOM     15  C   LIG    1       -6.705   1.737   0.000  0.00  0.00    +0.003 C 
BRANCH  15  16
ATOM     16  C   LIG    1       -7.181   3.201   0.000  0.00  0.00    +0.041 A 
ATOM     17  C   LIG    1       -6.276   4.447   0.000  0.00  0.00    +0.045 A 
ATOM     18  C   LIG    1       -7.181   5.693   0.000  0.00  0.00    +0.202 A 
ATOM     22  O   LIG    1       -8.646   5.217   0.000  0.00  0.00    -0.446 OA
ATOM     23  C   LIG    1       -8.646   3.677   0.000  0.00  0.00    +0.180 A 
BRANCH  18  19
ATOM     19  C   LIG    1       -6.705   7.158   0.000  0.00  0.00    +0.319 C 
ATOM     20  N   LIG    1       -7.736   8.302   0.000  0.00  0.00    -0.081 NA
ATOM     21  O   LIG    1       -5.199   7.478   0.000  0.00  0.00    -0.263 OA
ENDBRANCH  18  19
ENDBRANCH  15  16
ENDBRANCH  13  14
TORSDOF 5
