REMARK  Name = C:\Users\Ganatra\Desktop\Docking1\NimbMod_hsp90inhib_9.pdb
REMARK                            x       y       z     vdW  Elec       q    Type
REMARK                         _______ _______ _______ _____ _____    ______ ____
ROOT
ATOM     10  C   LIG    1       -2.349  -2.149   0.000  0.00  0.00    +0.120 C 
ATOM     11  N   LIG    1       -1.016  -2.919   0.000  0.00  0.00    -0.077 NA
ENDROOT
BRANCH  10   9
ATOM      1  C   LIG    1       -2.349   4.011   0.000  0.00  0.00    +0.125 A 
ATOM      6  C   LIG    1       -2.349   2.471   0.000  0.00  0.00    +0.019 A 
ATOM      7  C   LIG    1       -1.016   1.701   0.000  0.00  0.00    +0.001 A 
ATOM      8  C   LIG    1       -1.016   0.161   0.000  0.00  0.00    +0.002 A 
ATOM      9  C   LIG    1       -2.349  -0.609   0.000  0.00  0.00    +0.021 A 
ATOM     32  C   LIG    1       -3.683   0.161   0.000  0.00  0.00    +0.002 A 
ATOM     33  C   LIG    1       -3.683   1.701   0.000  0.00  0.00    +0.001 A 
ATOM     34  C   LIG    1       -5.017   2.471   0.000  0.00  0.00    +0.000 A 
ATOM     35  C   LIG    1       -5.017   4.011   0.000  0.00  0.00    +0.001 A 
ATOM     36  C   LIG    1       -3.683   4.781   0.000  0.00  0.00    +0.020 A 
BRANCH   1   2
ATOM      2  S   LIG    1       -1.016   4.781   0.000  0.00  0.00    +0.093 S 
ATOM      3  N   LIG    1       -1.786   6.115   0.000  0.00  0.00    +0.039 NA
ATOM      4  O   LIG    1       -0.246   3.448   0.000  0.00  0.00    -0.150 OA
ATOM      5  O   LIG    1        0.318   5.551   0.000  0.00  0.00    -0.150 OA
ENDBRANCH   1   2
ENDBRANCH  10   9
BRANCH  10  20
ATOM     20  C   LIG    1       -3.683  -2.919   0.000  0.00  0.00    +0.021 A 
ATOM     21  C   LIG    1       -5.017  -2.149   0.000  0.00  0.00    +0.005 A 
ATOM     22  C   LIG    1       -6.350  -2.919   0.000  0.00  0.00    +0.038 A 
ATOM     23  C   LIG    1       -6.350  -4.459   0.000  0.00  0.00    +0.146 A 
ATOM     24  O   LIG    1       -7.495  -5.489   0.000  0.00  0.00    -0.447 OA
ATOM     25  C   LIG    1       -6.868  -6.896   0.000  0.00  0.00    +0.225 A 
ATOM     29  C   LIG    1       -5.337  -6.735   0.000  0.00  0.00    +0.047 A 
ATOM     30  C   LIG    1       -5.017  -5.229   0.000  0.00  0.00    +0.038 A 
ATOM     31  C   LIG    1       -3.683  -4.459   0.000  0.00  0.00    +0.005 A 
BRANCH  25  26
ATOM     26  C   LIG    1       -7.638  -8.230   0.000  0.00  0.00    +0.422 C 
ATOM     27  O   LIG    1       -9.178  -8.230   0.000  0.00  0.00    -0.237 OA
ATOM     28  O   LIG    1       -6.868  -9.563   0.000  0.00  0.00    -0.237 OA
ENDBRANCH  25  26
ENDBRANCH  10  20
BRANCH  11  12
ATOM     12  O   LIG    1        0.318  -2.149   0.000  0.00  0.00    -0.350 OA
BRANCH  12  13
ATOM     13  C   LIG    1        1.652  -2.919   0.000  0.00  0.00    +0.212 C 
ATOM     14  C   LIG    1        2.985  -2.149   0.000  0.00  0.00    +0.045 C 
BRANCH  14  15
ATOM     15  C   LIG    1        4.319  -2.919   0.000  0.00  0.00    +0.027 C 
ATOM     16  C   LIG    1        5.653  -2.149   0.000  0.00  0.00    +0.137 C 
BRANCH  16  17
ATOM     17  N   LIG    1        6.987  -2.919   0.000  0.00  0.00    -0.069 NA
ATOM     18  N   LIG    1        8.320  -2.149   0.000  0.00  0.00    -0.162 NA
ATOM     19  N   LIG    1        9.654  -1.379   0.000  0.00  0.00    +0.068 NA
ENDBRANCH  16  17
ENDBRANCH  14  15
ENDBRANCH  12  13
ENDBRANCH  11  12
TORSDOF 8
