REMARK  Name = C:\Users\vyomp\Desktop\docking\compound3.pdb
REMARK  5 active torsions:
REMARK  status: ('A' for Active; 'I' for Inactive)
REMARK    1  A    between atoms: C_1  and  S_25
REMARK    2  A    between atoms: C_8  and  C_11
REMARK    3  A    between atoms: C_12  and  C_13
REMARK    4  A    between atoms: C_15  and  C_19
REMARK    5  A    between atoms: C_17  and  C_18
REMARK                            x       y       z     vdW  Elec       q    Type
REMARK                         _______ _______ _______ _____ _____    ______ ____
ROOT
ATOM      1  C   UNK     0      -3.261   1.160   0.000  0.00  0.00    +0.000 A 
ATOM      2  C   UNK     0      -4.595   0.390   0.000  0.00  0.00    +0.000 A 
ATOM      3  C   UNK     0      -4.595  -1.150   0.000  0.00  0.00    +0.000 A 
ATOM      4  C   UNK     0      -3.261  -1.920   0.000  0.00  0.00    +0.000 A 
ATOM      5  C   UNK     0      -1.927  -1.150   0.000  0.00  0.00    +0.000 A 
ATOM      6  C   UNK     0      -1.927   0.390   0.000  0.00  0.00    +0.000 A 
ATOM      7  C   UNK     0      -0.594  -1.920   0.000  0.00  0.00    +0.000 A 
ATOM      8  C   UNK     0       0.740  -1.150   0.000  0.00  0.00    +0.000 A 
ATOM      9  C   UNK     0       0.740   0.390   0.000  0.00  0.00    +0.000 A 
ATOM     10  C   UNK     0      -0.594   1.160   0.000  0.00  0.00    +0.000 A 
ATOM     24  O   UNK     0      -3.261  -3.460   0.000  0.00  0.00    +0.000 OA
ENDROOT
BRANCH   1  25
ATOM     25  S   UNK     0      -3.261   2.700   0.000  0.00  0.00    +0.000 S 
ATOM     26  N   UNK     0      -3.261   4.240   0.000  0.00  0.00    +0.000 NA
ATOM     27  O   UNK     0      -1.721   2.700   0.000  0.00  0.00    +0.000 OA
ATOM     28  O   UNK     0      -4.801   2.700   0.000  0.00  0.00    +0.000 OA
ENDBRANCH   1  25
BRANCH   8  11
ATOM     11  C   UNK     0       2.074  -1.920   0.000  0.00  0.00    +0.000 C 
ATOM     12  C   UNK     0       3.407  -1.150   0.000  0.00  0.00    +0.000 C 
BRANCH  12  13
ATOM     13  C   UNK     0       4.741  -1.920   0.000  0.00  0.00    +0.000 A 
ATOM     14  C   UNK     0       6.148  -1.294   0.000  0.00  0.00    +0.000 A 
ATOM     15  C   UNK     0       7.178  -2.438   0.000  0.00  0.00    +0.000 A 
ATOM     16  O   UNK     0       6.408  -3.772   0.000  0.00  0.00    +0.000 OA
ATOM     17  C   UNK     0       4.902  -3.452   0.000  0.00  0.00    +0.000 A 
BRANCH  17  18
ATOM     18  C   UNK     0       3.758  -4.482   0.000  0.00  0.00    +0.000 C 
ATOM     20  O   UNK     0       4.078  -5.989   0.000  0.00  0.00    +0.000 OA
ATOM     23  O   UNK     0       2.293  -4.006   0.000  0.00  0.00    +0.000 OA
ENDBRANCH  17  18
BRANCH  15  19
ATOM     19  C   UNK     0       8.710  -2.277   0.000  0.00  0.00    +0.000 C 
ATOM     21  O   UNK     0       9.615  -3.523   0.000  0.00  0.00    +0.000 OA
ATOM     22  O   UNK     0       9.336  -0.870   0.000  0.00  0.00    +0.000 OA
ENDBRANCH  15  19
ENDBRANCH  12  13
ENDBRANCH   8  11
TORSDOF 5
