REMARK  Name = C:\Users\Ganatra\Desktop\Docking1\NimbMod_hsp90inhib_1.pdb
REMARK                            x       y       z     vdW  Elec       q    Type
REMARK                         _______ _______ _______ _____ _____    ______ ____
ROOT
ATOM      4  C   LIG    1       -3.019   0.187   0.000  0.00  0.00    +0.074 A 
ATOM      5  C   LIG    1       -1.685  -0.583   0.000  0.00  0.00    +0.087 A 
ATOM      6  N   LIG    1       -0.351   0.187   0.000  0.00  0.00    -0.244 NA
ATOM      7  C   LIG    1        0.982  -0.583   0.000  0.00  0.00    +0.100 A 
ATOM      8  C   LIG    1        0.982  -2.123   0.000  0.00  0.00    +0.039 A 
ATOM      9  C   LIG    1       -0.351  -2.893   0.000  0.00  0.00    +0.092 A 
ATOM     10  N   LIG    1       -0.351  -4.433   0.000  0.00  0.00    -0.128 NA
ATOM     21  C   LIG    1       -1.685  -2.123   0.000  0.00  0.00    +0.035 A 
ATOM     22  C   LIG    1       -3.019  -2.893   0.000  0.00  0.00    +0.007 A 
ATOM     23  C   LIG    1       -4.353  -2.123   0.000  0.00  0.00    +0.057 A 
ATOM     27  C   LIG    1       -4.353  -0.583   0.000  0.00  0.00    +0.011 A 
ENDROOT
BRANCH   7  11
ATOM     11  C   LIG    1        2.316   0.187   0.000  0.00  0.00    +0.102 A 
ATOM     12  N   LIG    1        3.723  -0.439   0.000  0.00  0.00    -0.210 NA
ATOM     13  C   LIG    1        4.753   0.705   0.000  0.00  0.00    +0.234 A 
ATOM     19  C   LIG    1        3.983   2.039   0.000  0.00  0.00    +0.060 A 
ATOM     20  C   LIG    1        2.477   1.719   0.000  0.00  0.00    +0.026 A 
BRANCH  13  14
ATOM     14  O   LIG    1        6.285   0.544   0.000  0.00  0.00    -0.382 OA
BRANCH  14  15
ATOM     15  P   LIG    1        7.190   1.790   0.000  0.00  0.00    +0.590 P 
ATOM     16  O   LIG    1        8.095   3.036   0.000  0.00  0.00    -0.104 OA
ATOM     17  O   LIG    1        5.944   2.695   0.000  0.00  0.00    -0.104 OA
ATOM     18  O   LIG    1        8.436   0.885   0.000  0.00  0.00    -0.211 OA
ENDBRANCH  14  15
ENDBRANCH  13  14
ENDBRANCH   7  11
BRANCH   4   1
ATOM      1  C   LIG    1       -3.019   1.727   0.000  0.00  0.00    +0.286 C 
ATOM      2  N   LIG    1       -4.353   2.497   0.000  0.00  0.00    -0.084 NA
ATOM      3  O   LIG    1       -1.685   2.497   0.000  0.00  0.00    -0.267 OA
ENDBRANCH   4   1
BRANCH  23  24
ATOM     24  C   LIG    1       -5.686  -2.893   0.000  0.00  0.00    +0.284 C 
ATOM     25  N   LIG    1       -7.020  -2.123   0.000  0.00  0.00    -0.084 NA
ATOM     26  O   LIG    1       -5.686  -4.433   0.000  0.00  0.00    -0.267 OA
ENDBRANCH  23  24
TORSDOF 5
