REMARK  Name = C:\Users\Ganatra\Desktop\Docking1\NimbMod_hsp90inhib_4.pdb
REMARK                            x       y       z     vdW  Elec       q    Type
REMARK                         _______ _______ _______ _____ _____    ______ ____
ROOT
ATOM      4  C   LIG    1       -3.443   0.961   0.000  0.00  0.00    +0.074 A 
ATOM      5  C   LIG    1       -2.110   0.191   0.000  0.00  0.00    +0.087 A 
ATOM      6  N   LIG    1       -0.776   0.961   0.000  0.00  0.00    -0.245 NA
ATOM      7  C   LIG    1        0.558   0.191   0.000  0.00  0.00    +0.083 A 
ATOM     21  C   LIG    1        0.558  -1.349   0.000  0.00  0.00    +0.037 A 
ATOM     22  C   LIG    1       -0.776  -2.119   0.000  0.00  0.00    +0.092 A 
ATOM     23  N   LIG    1       -0.776  -3.659   0.000  0.00  0.00    -0.128 NA
ATOM     24  C   LIG    1       -2.110  -1.349   0.000  0.00  0.00    +0.035 A 
ATOM     25  C   LIG    1       -3.443  -2.119   0.000  0.00  0.00    +0.007 A 
ATOM     26  C   LIG    1       -4.777  -1.349   0.000  0.00  0.00    +0.057 A 
ATOM     30  C   LIG    1       -4.777   0.191   0.000  0.00  0.00    +0.011 A 
ENDROOT
BRANCH   4   1
ATOM      1  C   LIG    1       -3.443   2.501   0.000  0.00  0.00    +0.286 C 
ATOM      2  N   LIG    1       -4.777   3.271   0.000  0.00  0.00    -0.084 NA
ATOM      3  O   LIG    1       -2.110   3.271   0.000  0.00  0.00    -0.267 OA
ENDBRANCH   4   1
BRANCH  26  27
ATOM     27  C   LIG    1       -6.111  -2.119   0.000  0.00  0.00    +0.284 C 
ATOM     28  N   LIG    1       -6.111  -3.659   0.000  0.00  0.00    -0.084 NA
ATOM     29  O   LIG    1       -7.445  -1.349   0.000  0.00  0.00    -0.267 OA
ENDBRANCH  26  27
BRANCH   7   8
ATOM      8  C   LIG    1        1.891   0.961   0.000  0.00  0.00    +0.022 C 
ATOM      9  C   LIG    1        3.225   0.191   0.000  0.00  0.00    +0.043 C 
BRANCH   9  10
ATOM     10  C   LIG    1        4.559   0.961   0.000  0.00  0.00    +0.189 A 
ATOM     11  O   LIG    1        5.965   0.335   0.000  0.00  0.00    -0.430 OA
ATOM     12  C   LIG    1        6.996   1.479   0.000  0.00  0.00    +0.313 A 
ATOM     17  C   LIG    1        6.226   2.813   0.000  0.00  0.00    +0.291 A 
ATOM     18  O   LIG    1        6.852   4.220   0.000  0.00  0.00    -0.278 OA
ATOM     19  C   LIG    1        4.720   2.493   0.000  0.00  0.00    +0.273 A 
ATOM     20  O   LIG    1        3.575   3.523   0.000  0.00  0.00    -0.280 OA
BRANCH  12  13
ATOM     13  S   LIG    1        8.527   1.318   0.000  0.00  0.00    +0.129 S 
ATOM     14  O   LIG    1        8.367  -0.214   0.000  0.00  0.00    -0.147 OA
ATOM     15  O   LIG    1        8.688   2.850   0.000  0.00  0.00    -0.147 OA
ATOM     16  N   LIG    1       10.059   1.157   0.000  0.00  0.00    +0.042 NA
ENDBRANCH  12  13
ENDBRANCH   9  10
ENDBRANCH   7   8
TORSDOF 5
