REMARK  Name = C:\Users\Ganatra\Desktop\Docking\Vina\New Comp\NewPyrroleComp7_3d.pdb
REMARK                            x       y       z     vdW  Elec       q    Type
REMARK                         _______ _______ _______ _____ _____    ______ ____
ROOT
ATOM     12  C   LIG    1        2.551   3.649  -0.148  0.00  0.00    +0.078 A 
ATOM     13  N   LIG    1        3.430   3.958   0.822  0.00  0.00    -0.245 NA
ATOM     14  C   LIG    1        4.084   5.093   0.539  0.00  0.00    +0.087 A 
ATOM     24  C   LIG    1        3.591   5.590  -0.676  0.00  0.00    +0.095 A 
ATOM     28  C   LIG    1        2.687   4.625  -1.153  0.00  0.00    +0.004 A 
ATOM     29  C   LIG    1        2.004   4.646  -2.469  0.00  0.00    +0.033 C 
ENDROOT
BRANCH  14  15
ATOM     15  C   LIG    1        5.095   5.642   1.361  0.00  0.00    +0.020 A 
ATOM     16  C   LIG    1        6.378   5.902   0.832  0.00  0.00    +0.014 A 
ATOM     17  C   LIG    1        7.380   6.506   1.618  0.00  0.00    +0.069 A 
ATOM     18 CL   LIG    1        8.882   6.802   0.882  0.00  0.00    -0.081 Cl
ATOM     19  C   LIG    1        7.106   6.850   2.965  0.00  0.00    +0.079 A 
ATOM     20 CL   LIG    1        8.296   7.613   3.908  0.00  0.00    -0.080 Cl
ATOM     21  C   LIG    1        5.832   6.557   3.514  0.00  0.00    +0.069 A 
ATOM     22 CL   LIG    1        5.430   6.924   5.124  0.00  0.00    -0.081 Cl
ATOM     23  C   LIG    1        4.841   5.950   2.714  0.00  0.00    +0.014 A 
ENDBRANCH  14  15
BRANCH  12  11
ATOM      8  C   LIG    1       -0.116   0.289   0.182  0.00  0.00    +0.039 A 
ATOM      9  C   LIG    1        1.166   0.276   0.781  0.00  0.00    +0.003 A 
ATOM     10  C   LIG    1        2.041   1.371   0.649  0.00  0.00    +0.002 A 
ATOM     11  C   LIG    1        1.659   2.538  -0.055  0.00  0.00    +0.017 A 
ATOM     30  C   LIG    1        0.350   2.572  -0.593  0.00  0.00    +0.002 A 
ATOM     31  C   LIG    1       -0.513   1.466  -0.496  0.00  0.00    +0.003 A 
BRANCH   8   6
ATOM      6  C   LIG    1       -1.000  -0.827   0.274  0.00  0.00    +0.196 C 
ATOM      7  O   LIG    1       -2.221  -0.568   0.420  0.00  0.00    -0.287 OA
BRANCH   6   5
ATOM      1  C   LIG    1        0.110  -4.956  -0.030  0.00  0.00    +0.058 A 
ATOM      2 CL   LIG    1        0.535  -6.590  -0.169  0.00  0.00    -0.082 Cl
ATOM      3  C   LIG    1       -1.075  -4.583   0.629  0.00  0.00    +0.011 A 
ATOM      4  C   LIG    1       -1.426  -3.225   0.741  0.00  0.00    +0.004 A 
ATOM      5  C   LIG    1       -0.611  -2.204   0.187  0.00  0.00    +0.039 A 
ATOM     32  C   LIG    1        0.571  -2.606  -0.486  0.00  0.00    +0.004 A 
ATOM     33  C   LIG    1        0.937  -3.961  -0.582  0.00  0.00    +0.011 A 
ENDBRANCH   6   5
ENDBRANCH   8   6
ENDBRANCH  12  11
BRANCH  24  25
ATOM     25  C   LIG    1        3.908   6.847  -1.259  0.00  0.00    +0.389 C 
ATOM     26  O   LIG    1        3.606   7.141  -2.437  0.00  0.00    -0.241 OA
ATOM     27  O   LIG    1        4.509   7.827  -0.537  0.00  0.00    -0.241 OA
ENDBRANCH  24  25
TORSDOF 5
