REMARK  Name = C:\Users\Ganatra\Desktop\Docking1\cmpd3.pdb
REMARK                            x       y       z     vdW  Elec       q    Type
REMARK                         _______ _______ _______ _____ _____    ______ ____
ROOT
ATOM      1  C   LIG    1       -3.261   1.160   0.000  0.00  0.00    +0.125 A 
ATOM      6  C   LIG    1       -1.927   0.390   0.000  0.00  0.00    +0.022 A 
ATOM      7  C   LIG    1       -0.594   1.160   0.000  0.00  0.00    +0.001 A 
ATOM      8  C   LIG    1        0.740   0.390   0.000  0.00  0.00    +0.000 A 
ATOM      9  C   LIG    1        0.740  -1.150   0.000  0.00  0.00    +0.000 A 
ATOM     23  C   LIG    1       -0.594  -1.920   0.000  0.00  0.00    +0.003 A 
ATOM     24  C   LIG    1       -1.927  -1.150   0.000  0.00  0.00    +0.040 A 
ATOM     25  C   LIG    1       -3.261  -1.920   0.000  0.00  0.00    +0.196 A 
ATOM     26  O   LIG    1       -3.261  -3.460   0.000  0.00  0.00    -0.287 OA
ATOM     27  C   LIG    1       -4.595  -1.150   0.000  0.00  0.00    +0.043 A 
ATOM     28  C   LIG    1       -4.595   0.390   0.000  0.00  0.00    +0.023 A 
ENDROOT
BRANCH   1   2
ATOM      2  S   LIG    1       -3.261   2.700   0.000  0.00  0.00    +0.093 S 
ATOM      3  N   LIG    1       -3.261   4.240   0.000  0.00  0.00    +0.039 NA
ATOM      4  O   LIG    1       -4.801   2.700   0.000  0.00  0.00    -0.150 OA
ATOM      5  O   LIG    1       -1.721   2.700   0.000  0.00  0.00    -0.150 OA
ENDBRANCH   1   2
BRANCH   9  10
ATOM     10  C   LIG    1        2.074  -1.920   0.000  0.00  0.00    +0.000 C 
ATOM     11  C   LIG    1        3.407  -1.150   0.000  0.00  0.00    +0.003 C 
BRANCH  11  12
ATOM     12  C   LIG    1        4.741  -1.920   0.000  0.00  0.00    +0.044 A 
ATOM     13  C   LIG    1        4.902  -3.452   0.000  0.00  0.00    +0.225 A 
ATOM     17  O   LIG    1        6.408  -3.772   0.000  0.00  0.00    -0.440 OA
ATOM     18  C   LIG    1        7.178  -2.438   0.000  0.00  0.00    +0.225 A 
ATOM     22  C   LIG    1        6.148  -1.294   0.000  0.00  0.00    +0.048 A 
BRANCH  13  14
ATOM     14  C   LIG    1        3.758  -4.482   0.000  0.00  0.00    +0.422 C 
ATOM     15  O   LIG    1        2.293  -4.006   0.000  0.00  0.00    -0.237 OA
ATOM     16  O   LIG    1        4.078  -5.989   0.000  0.00  0.00    -0.237 OA
ENDBRANCH  13  14
BRANCH  18  19
ATOM     19  C   LIG    1        8.710  -2.277   0.000  0.00  0.00    +0.422 C 
ATOM     20  O   LIG    1        9.336  -0.870   0.000  0.00  0.00    -0.237 OA
ATOM     21  O   LIG    1        9.615  -3.523   0.000  0.00  0.00    -0.237 OA
ENDBRANCH  18  19
ENDBRANCH  11  12
ENDBRANCH   9  10
TORSDOF 5
