REMARK  Name = C:\Users\Ganatra\Desktop\Docking1\NimbMod_hsp90inhib_3.pdb
REMARK                            x       y       z     vdW  Elec       q    Type
REMARK                         _______ _______ _______ _____ _____    ______ ____
ROOT
ATOM     12  C   LIG    1        2.316   0.187   0.000  0.00  0.00    +0.074 C 
ENDROOT
BRANCH  12  11
ATOM      1  C   LIG    1       -3.019   0.187   0.000  0.00  0.00    +0.192 A 
ATOM      2  N   LIG    1       -3.019   1.727   0.000  0.00  0.00    -0.105 NA
ATOM      3  N   LIG    1       -4.353  -0.583   0.000  0.00  0.00    -0.191 NA
ATOM      4  C   LIG    1       -4.353  -2.123   0.000  0.00  0.00    +0.258 A 
ATOM      5  N   LIG    1       -5.686  -2.893   0.000  0.00  0.00    -0.086 NA
ATOM      6  N   LIG    1       -3.019  -2.893   0.000  0.00  0.00    -0.207 NA
ATOM      7  C   LIG    1       -1.685  -2.123   0.000  0.00  0.00    +0.139 A 
ATOM      8  C   LIG    1       -0.351  -2.893   0.000  0.00  0.00    +0.190 A 
ATOM      9  N   LIG    1       -0.351  -4.433   0.000  0.00  0.00    -0.105 NA
ATOM     10  N   LIG    1        0.982  -2.123   0.000  0.00  0.00    -0.211 NA
ATOM     11  C   LIG    1        0.982  -0.583   0.000  0.00  0.00    +0.141 A 
ATOM     26  N   LIG    1       -0.351   0.187   0.000  0.00  0.00    -0.226 NA
ATOM     27  C   LIG    1       -1.685  -0.583   0.000  0.00  0.00    +0.138 A 
ENDBRANCH  12  11
BRANCH  12  13
ATOM     13  C   LIG    1        2.316   1.727   0.000  0.00  0.00    +0.076 C 
BRANCH  13  14
ATOM     14  C   LIG    1        3.723   2.354   0.000  0.00  0.00    +0.169 A 
ATOM     15  O   LIG    1        5.057   1.584   0.000  0.00  0.00    -0.422 OA
ATOM     16  C   LIG    1        6.201   2.614   0.000  0.00  0.00    +0.347 A 
ATOM     22  C   LIG    1        5.575   4.021   0.000  0.00  0.00    +0.308 A 
ATOM     23  O   LIG    1        6.345   5.355   0.000  0.00  0.00    -0.276 OA
ATOM     24  C   LIG    1        4.043   3.860   0.000  0.00  0.00    +0.271 A 
ATOM     25  O   LIG    1        3.013   5.004   0.000  0.00  0.00    -0.280 OA
BRANCH  16  17
ATOM     17  O   LIG    1        7.707   2.294   0.000  0.00  0.00    -0.365 OA
BRANCH  17  18
ATOM     18  P   LIG    1        8.183   0.829   0.000  0.00  0.00    +0.591 P 
ATOM     19  O   LIG    1        7.153  -0.315   0.000  0.00  0.00    -0.104 OA
ATOM     20  O   LIG    1        8.659  -0.635   0.000  0.00  0.00    -0.104 OA
ATOM     21  O   LIG    1        9.690   0.509   0.000  0.00  0.00    -0.211 OA
ENDBRANCH  17  18
ENDBRANCH  16  17
ENDBRANCH  13  14
ENDBRANCH  12  13
TORSDOF 5
