REMARK  Name = W8Y
REMARK                            x       y       z     vdW  Elec       q    Type
REMARK                         _______ _______ _______ _____ _____    ______ ____
ROOT
ATOM      1  C   LIG    1       -2.806  11.061  11.762  0.00  0.00    +0.134 A 
ATOM      2  C   LIG    1       -2.342  12.172  12.436  0.00  0.00    +0.091 A 
ATOM      3  C   LIG    1       -1.025  12.194  12.915  0.00  0.00    +0.122 A 
ATOM      6  C   LIG    1       -0.184  11.116  12.739  0.00  0.00    +0.069 A 
ATOM      7  C   LIG    1       -0.653  10.010  12.062  0.00  0.00    +0.052 A 
ATOM     22  C   LIG    1       -1.967   9.981  11.597  0.00  0.00    +0.100 A 
ENDROOT
BRANCH  22  23
ATOM     23  C   LIG    1       -2.483   8.739  10.881  0.00  0.00    +0.253 C 
ATOM     24  O   LIG    1       -3.300   8.008  11.387  0.00  0.00    -0.270 OA
ATOM     25  N   LIG    1       -1.972   8.460   9.593  0.00  0.00    -0.287 N 
ATOM     26  C   LIG    1       -1.011   9.280   8.885  0.00  0.00    +0.164 C 
ATOM     27  C   LIG    1       -1.037   8.764   7.443  0.00  0.00    +0.063 A 
ATOM     28  C   LIG    1       -1.824   7.612   7.399  0.00  0.00    -0.007 A 
ATOM     29  C   LIG    1       -1.997   6.928   6.188  0.00  0.00    +0.008 A 
ATOM     30  C   LIG    1       -1.358   7.459   5.059  0.00  0.00    +0.020 A 
ATOM     31  C   LIG    1       -0.602   8.626   5.187  0.00  0.00    +0.111 A 
ATOM     32  N   LIG    1       -0.447   9.247   6.348  0.00  0.00    -0.258 NA
ATOM     33  C   LIG    1       -2.360   7.319   8.811  0.00  0.00    +0.145 C 
ENDBRANCH  22  23
BRANCH   3   4
ATOM      4  O   LIG    1       -0.583  13.324  13.599  0.00  0.00    -0.507 OA
ATOM      5  H   LIG    1        0.321  13.201  13.864  0.00  0.00    +0.292 HD
ENDBRANCH   3   4
BRANCH   7   8
ATOM      8  N   LIG    1        0.216   8.875  11.849  0.00  0.00    -0.299 N 
ATOM      9  H   LIG    1       -0.156   8.055  11.414  0.00  0.00    +0.154 HD
BRANCH   8  10
ATOM     10  C   LIG    1        1.602   8.889  12.244  0.00  0.00    +0.121 A 
ATOM     11  C   LIG    1        2.133   8.291  13.360  0.00  0.00    +0.073 A 
ATOM     12  C   LIG    1        3.503   8.547  13.309  0.00  0.00    +0.095 A 
ATOM     19  N   LIG    1        3.771   9.259  12.226  0.00  0.00    -0.170 NA
ATOM     20  N   LIG    1        2.592   9.467  11.584  0.00  0.00    -0.253 N 
ATOM     21  C   LIG    1        2.511  10.203  10.333  0.00  0.00    +0.174 C 
BRANCH  12  13
ATOM     13  C   LIG    1        4.569   8.115  14.272  0.00  0.00    +0.002 A 
ATOM     14  C   LIG    1        4.257   7.812  15.586  0.00  0.00    +0.010 A 
ATOM     15  C   LIG    1        5.276   7.411  16.432  0.00  0.00    +0.001 A 
ATOM     16  C   LIG    1        6.575   7.317  15.959  0.00  0.00    +0.000 A 
ATOM     17  C   LIG    1        6.877   7.613  14.635  0.00  0.00    +0.001 A 
ATOM     18  C   LIG    1        5.863   8.018  13.780  0.00  0.00    +0.010 A 
ENDBRANCH  12  13
ENDBRANCH   8  10
ENDBRANCH   7   8
BRANCH   1  34
ATOM     34  O   LIG    1       -4.131  11.019  11.290  0.00  0.00    -0.506 OA
ATOM     35  H   LIG    1       -4.564  11.842  11.486  0.00  0.00    +0.292 HD
ENDBRANCH   1  34
TORSDOF 6
